MOL
 OpenBabel08081616463D

  4  3  0  0  0  0  0  0  0  0999 V2000
    0.0000   -1.5400    0.0000 B   0  0  0  0  0  0  0  0  0  0  0  0
    0.0000    0.0000    0.0000 B   0  0  0  0  0  0  0  0  0  0  0  0
    1.5400    0.0000    0.0000 B   0  0  0  0  0  0  0  0  0  0  0  0
    1.5400    1.5400    0.0000 B   0  0  0  0  0  0  0  0  0  0  0  0
  1  2  1  0  0  0  0
  2  3  1  0  0  0  0
  3  4  1  0  0  0  0
M  END
$$$$
